Version 4.1
SHEET 1 880 680
WIRE 624 -656 352 -656
WIRE 224 -624 224 -736
WIRE 352 -608 352 -656
WIRE 624 -608 624 -656
WIRE 528 -528 352 -528
WIRE 624 -528 528 -528
WIRE 32 -368 32 -400
WIRE 32 -368 -16 -368
WIRE -16 -336 -16 -368
WIRE 224 -320 224 -544
WIRE 336 -320 224 -320
WIRE 224 -272 224 -320
WIRE 336 -224 336 -320
WIRE 336 -224 272 -224
WIRE 0 -208 -112 -208
WIRE 176 -208 0 -208
WIRE 192 -112 192 -160
FLAG -16 -640 0
FLAG -16 -720 Vin
FLAG 32 -480 VPP
FLAG 192 -32 0
FLAG 224 -736 VPP
FLAG -16 -336 0
FLAG 528 -528 0
FLAG 0 -128 0
FLAG -112 -208 Vin
SYMBOL voltage -16 -736 R0
WINDOW 123 24 44 Left 2
WINDOW 39 0 0 Left 0
SYMATTR Value2 AC 1
SYMATTR InstName V1
SYMATTR Value SINE(0 18.41 1K)
SYMBOL voltage 32 -496 R0
WINDOW 123 0 0 Left 0
WINDOW 39 0 0 Left 0
SYMATTR InstName V2
SYMATTR Value 120
SYMBOL Misc\\tetrode 224 -224 R0
SYMATTR InstName U1
SYMATTR Value 7591
SYMBOL res 176 -128 R0
SYMATTR InstName R1
SYMATTR Value 450
SYMBOL res 608 -624 R0
SYMATTR InstName R2
SYMATTR Value 8
SYMBOL res -16 -224 R0
SYMATTR InstName R3
SYMATTR Value 1Meg
SYMBOL ind 208 -640 R0
SYMATTR InstName L1
SYMATTR Value 625”
SYMATTR SpiceLine Rser=5000
SYMBOL ind 368 -512 R180
WINDOW 0 36 80 Left 2
WINDOW 3 36 40 Left 2
SYMATTR InstName L2
SYMATTR Value 1”
SYMATTR SpiceLine Rser=8
TEXT -16 200 Left 2 !.include ../include/7591.inc
TEXT -816 224 Left 2 !.tran 4m
TEXT 248 -672 Left 2 !K1 L1 L2 1
